**** Created by MC2: Version 2012.02.00.d on 2024/01/10, 17:25:26 

************************************************************************
* AUCDL NETLIST:
* 
* LIBRARY NAME:  N28HPM_DP_LEAFCELLS
* TOP CELL NAME: LEAFCELL_DP
* VIEW NAME:     SCHEMATIC
* NETLISTED ON:  DEC 24 13:14:24 2013
************************************************************************

*.EQUATION
*.SCALE METER
.PARAM


*.PIN VSS

************************************************************************
* LIBRARY NAME: N28_LOGIC_MAC
* CELL NAME:    INV_BULK
* VIEW NAME:    SCHEMATIC
************************************************************************

.SUBCKT SDBM200W80_INV_BULK A G GB P PB Y
*.PININFO A:I G:I GB:I P:I PB:I Y:O
M1 Y A P PB pch_mac L=LP W=WP M=MULTI*FP
M3 Y A G GB nch_mac L=LN W=WN M=MULTI*FN
.ENDS

************************************************************************
* LIBRARY NAME: N28HPM_DP_LEAFCELLS
* CELL NAME:    DIN_WOBIST_DP_V2
* VIEW NAME:    SCHEMATIC
************************************************************************

.SUBCKT SDBM200W80_DIN_WOBIST_DP_V2 BWEB CKD D DCLKA GW GWB VDDI VSSI
*.PININFO BWEB:I CKD:I D:I DCLKA:I GW:O GWB:O VDDI:B VSSI:B
MM29 DX4L DCLKA1B Z6 VDDI pch_mac L=30N W=320N M=1
MM5 NET0129 BWEB Z13 VDDI pch_mac L=30N W=320N M=1
MM6 VDDI BX4L1B Z16 VDDI pch_mac L=30N W=320N M=1
MM27 DX4L D Z9 VDDI pch_mac L=30N W=320N M=1
MP1 DX4L3B_AND CKD2 VDDI VDDI pch_mac L=30N W=350N M=1
MM54 DX4L3B_AND BX4L1B VDDI VDDI pch_mac L=30N W=350N M=1
MM53 DX4L2_AND BX4L1B VDDI VDDI pch_mac L=30N W=350N M=1
MM52 DX4L2_AND NET108 VDDI VDDI pch_mac L=30N W=350N M=1
MM51 DX4L3B_AND DX4L2 VDDI VDDI pch_mac L=30N W=350N M=1
MM28 VDDI NET108 Z6 VDDI pch_mac L=30N W=320N M=1
MP10 DX4L2_AND CKD2 VDDI VDDI pch_mac L=30N W=350N M=1
MM7 VDDI DCLKA2 Z13 VDDI pch_mac L=30N W=320N M=1
MM4 NET0129 DCLKA1B Z16 VDDI pch_mac L=30N W=320N M=1
MM26 VDDI DCLKA2 Z9 VDDI pch_mac L=30N W=320N M=1
MM3 NET0129 BWEB Z15 VSSI nch_mac L=30N W=210N M=1
MM34 DX4L D Z11 VSSI nch_mac L=30N W=210N M=1
MM35 DX4L DCLKA2 Z7 VSSI nch_mac L=30N W=210N M=1
MM2 NET0129 DCLKA2 Z14 VSSI nch_mac L=30N W=210N M=1
MN2 Z2 CKD2 Z1 VSSI nch_mac L=30N W=760N M=2
MN33 DX4L3B_AND DX4L2 Z2 VSSI nch_mac L=30N W=760N M=1
MM1 VSSI DCLKA1B Z15 VSSI nch_mac L=30N W=210N M=1
MM37 VSSI NET108 Z7 VSSI nch_mac L=30N W=210N M=1
MM36 VSSI DCLKA1B Z11 VSSI nch_mac L=30N W=210N M=1
MM0 VSSI BX4L1B Z14 VSSI nch_mac L=30N W=210N M=1
MN1 DX4L2_AND NET108 Z2 VSSI nch_mac L=30N W=760N M=1
MN7 Z1 BX4L1B VSSI VSSI nch_mac L=30N W=1.01U M=3
XI331 NET108 VSSI VSSI VDDI VDDI DX4L2 SDBM200W80_INV_BULK FN=1 WN=0.64U LN=0.03U 
+ MULTI=1 FP=1 WP=0.98U LP=0.03U
XI314 CKD VSSI VSSI VDDI VDDI CKD1B SDBM200W80_INV_BULK FN=1 WN=0.21U LN=0.03U MULTI=1 
+ FP=1 WP=0.32U LP=0.03U
XI317 CKD1B VSSI VSSI VDDI VDDI CKD2 SDBM200W80_INV_BULK FN=1 WN=0.43U LN=0.03U MULTI=1 
+ FP=1 WP=0.64U LP=0.03U
XI339 DCLKA1B VSSI VSSI VDDI VDDI DCLKA2 SDBM200W80_INV_BULK FN=1 WN=0.43U LN=0.03U 
+ MULTI=1 FP=1 WP=0.64U LP=0.03U
XI333 DX4L3B_AND VSSI VSSI VDDI VDDI GW SDBM200W80_INV_BULK FN=10 WN=0.225U LN=0.03U 
+ MULTI=1 FP=10 WP=0.45U LP=0.03U
XI337 DCLKA VSSI VSSI VDDI VDDI DCLKA1B SDBM200W80_INV_BULK FN=1 WN=0.21U LN=0.03U 
+ MULTI=1 FP=1 WP=0.32U LP=0.03U
XI332 DX4L2_AND VSSI VSSI VDDI VDDI GWB SDBM200W80_INV_BULK FN=10 WN=0.225U LN=0.03U 
+ MULTI=1 FP=10 WP=0.45U LP=0.03U
XI329 DX4L VSSI VSSI VDDI VDDI NET108 SDBM200W80_INV_BULK FN=1 WN=0.32U LN=0.03U 
+ MULTI=1 FP=1 WP=0.54U LP=0.03U
XI336 NET0129 VSSI VSSI VDDI VDDI BX4L1B SDBM200W80_INV_BULK FN=1 WN=0.32U LN=0.03U 
+ MULTI=1 FP=1 WP=0.54U LP=0.03U
.ENDS

************************************************************************
* LIBRARY NAME: N28_LOGIC_MAC
* CELL NAME:    NOR_BULK
* VIEW NAME:    SCHEMATIC
************************************************************************

.SUBCKT SDBM200W80_NOR_BULK A B G GB P PB Y
*.PININFO A:I B:I G:I GB:I P:I PB:I Y:O
M1 NET021 A P PB pch_mac L=LP1 W=WP1 M=MULTI*FP1
M3 Y B NET021 PB pch_mac L=LP2 W=WP2 M=MULTI*FP2
M5 Y B G GB nch_mac L=LN2 W=WN2 M=MULTI*FN2
M7 Y A G GB nch_mac L=LN1 W=WN1 M=MULTI*FN1
.ENDS

************************************************************************
* LIBRARY NAME: N28HPM_DP_LEAFCELLS
* CELL NAME:    DOUT_DP_V1
* VIEW NAME:    SCHEMATIC
************************************************************************

.SUBCKT SDBM200W80_DOUT_DP_V1 AWT AWTDA AWTDB GBL GBLB QA QB QLATCH_AB QLATCH_BB VDDI 
+ VSSI WLP_SAEB
*.PININFO AWT:I AWTDA:I AWTDB:I QLATCH_AB:I QLATCH_BB:I WLP_SAEB:I QA:O QB:O 
*.PININFO GBL:B GBLB:B VDDI:B VSSI:B
XI216 SEL_B VSSI VSSI VDDI VDDI SEL_BB SDBM200W80_INV_BULK FN=1 WN=0.24U LN=0.03U 
+ MULTI=1 FP=2 WP=0.25U LP=0.03U
XI215 SEL_A VSSI VSSI VDDI VDDI SEL_AB SDBM200W80_INV_BULK FN=1 WN=0.24U LN=0.03U 
+ MULTI=1 FP=2 WP=0.25U LP=0.03U
XI208 QBB VSSI VSSI VDDI VDDI QBBB SDBM200W80_INV_BULK FN=1 WN=0.3U LN=0.03U MULTI=1 
+ FP=1 WP=0.4U LP=0.03U
XI205 AWTDB1B VSSI VSSI VDDI VDDI NET0173 SDBM200W80_INV_BULK FN=1 WN=0.15U LN=0.03U 
+ MULTI=1 FP=1 WP=0.15U LP=0.03U
XI200 QAB VSSI VSSI VDDI VDDI QABB SDBM200W80_INV_BULK FN=1 WN=0.3U LN=0.03U MULTI=1 
+ FP=1 WP=0.4U LP=0.03U
XI204 AWTDB VSSI VSSI VDDI VDDI AWTDB1B SDBM200W80_INV_BULK FN=1 WN=0.15U LN=0.03U 
+ MULTI=1 FP=1 WP=0.22U LP=0.03U
XI176 SEL_A VSSI VSSI VDDI VDDI SEL_AB SDBM200W80_INV_BULK FN=1 WN=0.24U LN=0.03U 
+ MULTI=1 FP=1 WP=0.48U LP=0.03U
XI212 AWT VSSI VSSI VDDI VDDI AWT1B SDBM200W80_INV_BULK FN=1 WN=0.15U LN=0.03U MULTI=1 
+ FP=1 WP=0.22U LP=0.03U
XI217 WLP_SAEB VSSI VSSI VDDI VDDI NET0229 SDBM200W80_INV_BULK FN=1 WN=0.25U LN=0.03U 
+ MULTI=1 FP=1 WP=0.25U LP=0.03U
XINV3 NET0229 VSSI VSSI VDDI VDDI DLRSB SDBM200W80_INV_BULK FN=1 WN=0.87U LN=0.03U 
+ MULTI=1 FP=1 WP=0.93U LP=0.03U
XI118 AWTDA1B VSSI VSSI VDDI VDDI NET085 SDBM200W80_INV_BULK FN=1 WN=0.15U LN=0.03U 
+ MULTI=1 FP=1 WP=0.15U LP=0.03U
XI213 AWT1B VSSI VSSI VDDI VDDI AWT2 SDBM200W80_INV_BULK FN=1 WN=0.15U LN=0.03U MULTI=1 
+ FP=1 WP=0.22U LP=0.03U
XI209 SEL_B VSSI VSSI VDDI VDDI SEL_BB SDBM200W80_INV_BULK FN=1 WN=0.24U LN=0.03U 
+ MULTI=1 FP=1 WP=0.48U LP=0.03U
XI207 QBB VSSI VSSI VDDI VDDI QB SDBM200W80_INV_BULK FN=4 WN=0.22U LN=0.03U MULTI=1 
+ FP=2 WP=0.8U LP=0.03U
XI198 QAB VSSI VSSI VDDI VDDI QA SDBM200W80_INV_BULK FN=4 WN=0.22U LN=0.03U MULTI=1 
+ FP=2 WP=0.8U LP=0.03U
XINV0 AWTDA VSSI VSSI VDDI VDDI AWTDA1B SDBM200W80_INV_BULK FN=1 WN=0.15U LN=0.03U 
+ MULTI=1 FP=1 WP=0.22U LP=0.03U
MM51 NET0219 AWT1B VSSI VSSI nch_mac L=30N W=220N M=1
MM49 NET0205 AWT1B VSSI VSSI nch_mac L=30N W=220N M=1
MM40 NET0197 SEL_B VSSI VSSI nch_mac L=30N W=0.3U M=6
MM42 QBB QB_T NET0197 VSSI nch_mac L=30N W=300N M=3
MM37 QBB AWT2 NET067 VSSI nch_mac L=30N W=300N M=1
MM43 QBB QBBB NET0196 VSSI nch_mac L=30N W=220N M=1
MM31 QAB QB_T NET0145 VSSI nch_mac L=30N W=300N M=3
MM26 NET0145 SEL_A VSSI VSSI nch_mac L=30N W=0.3U M=6
MM41 NET0196 SEL_BB NET0219 VSSI nch_mac L=30N W=220N M=1
MM24 Z3 GBLB VSSI VSSI nch_mac L=30N W=0.33U M=4
MM36 NET067 NET0173 VSSI VSSI nch_mac L=30N W=300N M=1
MM32 QAB QABB NET0144 VSSI nch_mac L=30N W=220N M=1
MN5 QAB AWT2 NET46 VSSI nch_mac L=30N W=300N M=1
MN6 NET46 NET085 VSSI VSSI nch_mac L=30N W=300N M=1
MM33 NET0144 SEL_AB NET0205 VSSI nch_mac L=30N W=220N M=1
MM0 NET130 GBL VSSI VSSI nch_mac L=30N W=300N M=3
MN21 QBB_T QB_T NET130 VSSI nch_mac L=30N W=300N M=3
MM25 QB_T QBB_T Z3 VSSI nch_mac L=30N W=330N M=3
MM53 QAB QB_T NET0142 VDDI pch_mac L=30N W=440N M=1
MM50 NET0210 AWT2 VDDI VDDI pch_mac L=30N W=300N M=1
MM47 NET0192 SEL_B NET0210 VDDI pch_mac L=30N W=300N M=1
MM46 NET0194 SEL_BB VDDI VDDI pch_mac L=30N W=0.88U M=3
MM45 QBB QBBB NET0192 VDDI pch_mac L=30N W=300N M=1
MM38 NET069 AWT1B QBB VDDI pch_mac L=30N W=300N M=2
MM48 NET0206 AWT2 VDDI VDDI pch_mac L=30N W=300N M=1
MM54 QBB QB_T NET0194 VDDI pch_mac L=30N W=0.5U M=3
MM39 NET069 NET0173 VDDI VDDI pch_mac L=30N W=300N M=2
MM44 QBB QB_T NET0194 VDDI pch_mac L=30N W=440N M=1
MP4 QBB_T QB_T VDDI VDDI pch_mac L=30N W=880N M=1
MM35 NET0141 SEL_A NET0206 VDDI pch_mac L=30N W=300N M=1
MM30 QAB QB_T NET0142 VDDI pch_mac L=30N W=0.5U M=3
MP10 NET48 AWT1B QAB VDDI pch_mac L=30N W=300N M=2
MP11 NET48 NET085 VDDI VDDI pch_mac L=30N W=300N M=2
MP7 VDDI DLRSB GBLB VDDI pch_mac L=30N W=1U M=6
MP0 GBLB GBL VDDI VDDI pch_mac L=30N W=320N M=1
MM29 NET0142 SEL_AB VDDI VDDI pch_mac L=30N W=0.88U M=3
MP6 VDDI GBLB GBL VDDI pch_mac L=30N W=320N M=1
MM34 QAB QABB NET0141 VDDI pch_mac L=30N W=300N M=1
MP8 GBL DLRSB VDDI VDDI pch_mac L=30N W=1U M=6
MM28 QB_T QBB_T VDDI VDDI pch_mac L=30N W=880N M=1
MM27 QB_T GBLB VDDI VDDI pch_mac L=30N W=880N M=1
MP15 QBB_T GBL VDDI VDDI pch_mac L=30N W=0.88U M=2
XI210 AWT QLATCH_BB VSSI VSSI VDDI VDDI SEL_B SDBM200W80_NOR_BULK FN1=1 WN1=0.3U 
+ LN1=0.03U FN2=1 WN2=0.3U LN2=0.03U FP2=1 WP2=0.5U LP2=0.03U MULTI=1 FP1=2 
+ WP1=0.5U LP1=0.03U
XI174 AWT QLATCH_AB VSSI VSSI VDDI VDDI SEL_A SDBM200W80_NOR_BULK FN1=1 WN1=0.3U 
+ LN1=0.03U FN2=1 WN2=0.3U LN2=0.03U FP2=1 WP2=0.5U LP2=0.03U MULTI=1 FP1=2 
+ WP1=0.5U LP1=0.03U
.ENDS

************************************************************************
* LIBRARY NAME: N28HPM_DP_LEAFCELLS
* CELL NAME:    LPLCH_DE_DATA
* VIEW NAME:    SCHEMATIC
************************************************************************

.SUBCKT SDBM200W80_LPLCH_DE_DATA CKC CKT IN Q QB VDDI VSSI
*.PININFO CKC:I CKT:I IN:I Q:O QB:O VDDI:B VSSI:B
MM3 NET037 CKT VSSI VSSI nch_mac L=30N W=150N M=1
MM2 QB Q NET037 VSSI nch_mac L=30N W=150N M=1
MM11 QB IN NET38 VSSI nch_mac L=30N W=210N M=1
MM8 NET38 CKC VSSI VSSI nch_mac L=30N W=210N M=1
MM1 QB Q NET036 VDDI pch_mac L=30N W=150N M=1
MM0 NET036 CKC VDDI VDDI pch_mac L=30N W=150N M=1
MM9 NET39 CKT VDDI VDDI pch_mac L=30N W=320N M=1
MM10 QB IN NET39 VDDI pch_mac L=30N W=320N M=1
XI1 QB VSSI VSSI VDDI VDDI Q SDBM200W80_INV_BULK FN=1 WN=0.21U LN=0.03U MULTI=1 FP=1 
+ WP=0.32U LP=0.03U
.ENDS

************************************************************************
* LIBRARY NAME: N28HPM_DP_LEAFCELLS
* CELL NAME:    PHASE_SEL_DATA
* VIEW NAME:    SCHEMATIC
************************************************************************

.SUBCKT SDBM200W80_PHASE_SEL_DATA PHASE1 PHASE2 SEL SELB SELOUT VDDI VSSI
*.PININFO PHASE1:I PHASE2:I SEL:I SELB:I SELOUT:B VDDI:B VSSI:B
MM11 SELOUT SEL NET08 VSSI nch_mac L=30N W=320N M=1
MM8 NET08 PHASE2 VSSI VSSI nch_mac L=30N W=320N M=1
MM5 SELOUT SELB NET015 VSSI nch_mac L=30N W=320N M=1
MM4 NET015 PHASE1 VSSI VSSI nch_mac L=30N W=320N M=1
MM10 SELOUT SELB NET038 VDDI pch_mac L=30N W=540N M=1
MM9 NET038 PHASE2 VDDI VDDI pch_mac L=30N W=540N M=1
MM7 NET039 PHASE1 VDDI VDDI pch_mac L=30N W=540N M=1
MM6 SELOUT SEL NET039 VDDI pch_mac L=30N W=540N M=1
.ENDS

************************************************************************
* LIBRARY NAME: N28HPM_DP_LEAFCELLS
* CELL NAME:    DIN_MUX_V1
* VIEW NAME:    SCHEMATIC
************************************************************************

.SUBCKT SDBM200W80_DIN_MUX_V1 AWTDA AWTDB BWEBA BWEBABX BWEBB DA DABX DB DCLK PHASESEL 
+ VDDI VSSI
*.PININFO BWEBA:I BWEBB:I DA:I DB:I DCLK:I PHASESEL:I AWTDA:O AWTDB:O 
*.PININFO BWEBABX:O DABX:O VDDI:B VSSI:B
XI17 CKC CKT BWEBBX2 BWEBBXT BWEBBXC VDDI VSSI SDBM200W80_LPLCH_DE_DATA
XDB_LATCH CKC CKT DBX2 DBXT DBXC VDDI VSSI SDBM200W80_LPLCH_DE_DATA
XI28 SELB VSSI VSSI VDDI VDDI SEL SDBM200W80_INV_BULK FN=1 WN=0.21U LN=0.03U MULTI=1 
+ FP=1 WP=0.32U LP=0.03U
XI27 PHASESEL VSSI VSSI VDDI VDDI SELB SDBM200W80_INV_BULK FN=1 WN=0.21U LN=0.03U 
+ MULTI=1 FP=1 WP=0.32U LP=0.03U
XI16 BWEBBX1B VSSI VSSI VDDI VDDI BWEBBX2 SDBM200W80_INV_BULK FN=1 WN=0.15U LN=0.03U 
+ MULTI=1 FP=1 WP=0.21U LP=0.03U
XI15 BWEBB VSSI VSSI VDDI VDDI BWEBBX1B SDBM200W80_INV_BULK FN=1 WN=0.15U LN=0.03U 
+ MULTI=1 FP=1 WP=0.21U LP=0.03U
XI12 BWEBAX1B VSSI VSSI VDDI VDDI BWEBAX2 SDBM200W80_INV_BULK FN=1 WN=0.15U LN=0.03U 
+ MULTI=1 FP=1 WP=0.21U LP=0.03U
XI11 BWEBA VSSI VSSI VDDI VDDI BWEBAX1B SDBM200W80_INV_BULK FN=1 WN=0.15U LN=0.03U 
+ MULTI=1 FP=1 WP=0.21U LP=0.03U
XI10 DBX1B VSSI VSSI VDDI VDDI DBX2 SDBM200W80_INV_BULK FN=1 WN=0.15U LN=0.03U MULTI=1 
+ FP=1 WP=0.21U LP=0.03U
XI9 DB VSSI VSSI VDDI VDDI DBX1B SDBM200W80_INV_BULK FN=1 WN=0.15U LN=0.03U MULTI=1 
+ FP=1 WP=0.21U LP=0.03U
XI8 DAX1B VSSI VSSI VDDI VDDI DAX2 SDBM200W80_INV_BULK FN=1 WN=0.15U LN=0.03U MULTI=1 
+ FP=1 WP=0.21U LP=0.03U
XI7 DA VSSI VSSI VDDI VDDI DAX1B SDBM200W80_INV_BULK FN=1 WN=0.15U LN=0.03U MULTI=1 
+ FP=1 WP=0.21U LP=0.03U
XI4 CKC VSSI VSSI VDDI VDDI CKT SDBM200W80_INV_BULK FN=1 WN=0.21U LN=0.03U MULTI=1 FP=1 
+ WP=0.32U LP=0.03U
XI3 DCLK VSSI VSSI VDDI VDDI CKC SDBM200W80_INV_BULK FN=1 WN=0.21U LN=0.03U MULTI=1 
+ FP=1 WP=0.32U LP=0.03U
XBWEB_MUX BWEBAX2 BWEBBXT SEL SELB BWEBABX VDDI VSSI SDBM200W80_PHASE_SEL_DATA
XD_MUX DAX2 DBXT SEL SELB DABX VDDI VSSI SDBM200W80_PHASE_SEL_DATA
MM4 ZB20 BWEBBX1B VSSI VSSI nch_mac L=30N W=150N M=1
MM5 ZB20 DBX2 VSSI VSSI nch_mac L=30N W=150N M=1
MM6 AWTDB BWEBBX2 ZB20 VSSI nch_mac L=30N W=150N M=1
MM7 AWTDB DBX1B ZB20 VSSI nch_mac L=30N W=150N M=1
MN6 AWTDA DAX1B ZA20 VSSI nch_mac L=30N W=150N M=1
MN13 ZA20 DAX2 VSSI VSSI nch_mac L=30N W=150N M=1
MN4 ZA20 BWEBAX1B VSSI VSSI nch_mac L=30N W=150N M=1
MN5 AWTDA BWEBAX2 ZA20 VSSI nch_mac L=30N W=150N M=1
MM8 AWTDB DBX1B NET21 VDDI pch_mac L=30N W=210N M=1
MM9 AWTDB DBX2 NET25 VDDI pch_mac L=30N W=210N M=1
MM10 NET25 BWEBBX1B VDDI VDDI pch_mac L=30N W=210N M=1
MM11 NET21 BWEBBX2 VDDI VDDI pch_mac L=30N W=210N M=1
MP5 AWTDA DAX2 NET17 VDDI pch_mac L=30N W=210N M=1
MP4 NET17 BWEBAX1B VDDI VDDI pch_mac L=30N W=210N M=1
MP3 NET13 BWEBAX2 VDDI VDDI pch_mac L=30N W=210N M=1
MP2 AWTDA DAX1B NET13 VDDI pch_mac L=30N W=210N M=1
.ENDS

************************************************************************
* LIBRARY NAME: N28HPM_DP_LEAFCELLS
* CELL NAME:    IO_WOBIST_DP
* VIEW NAME:    SCHEMATIC
************************************************************************

.SUBCKT SDBM200W80_IO_WOBIST_DP AWT BWEBA BWEBB CKD DA DB DCLK DCLKA GBL GBLB GW GWB 
+ PHASESEL QA QB QLATCH_AB QLATCH_BB RSC_TRK_W VDDI VSSI WLP_SAEB
*.PININFO AWT:I BWEBA:I BWEBB:I CKD:I DA:I DB:I DCLK:I DCLKA:I PHASESEL:I 
*.PININFO QLATCH_AB:I QLATCH_BB:I WLP_SAEB:I GW:O GWB:O QA:O QB:O GBL:B GBLB:B 
*.PININFO RSC_TRK_W:B VDDI:B VSSI:B
XDIN BWEBABX CKD DABX DCLKA GW GWB VDDI VSSI SDBM200W80_DIN_WOBIST_DP_V2
XDOUT AWT AWTDA AWTDB GBL GBLB QA QB QLATCH_AB QLATCH_BB VDDI VSSI WLP_SAEB 
+ SDBM200W80_DOUT_DP_V1
XDIN_MUX AWTDA AWTDB BWEBA BWEBABX BWEBB DA DABX DB DCLK PHASESEL VDDI VSSI 
+ SDBM200W80_DIN_MUX_V1
.ENDS

************************************************************************
* LIBRARY NAME: N28HPM_DP_LEAFCELLS
* CELL NAME:    PRECHARGE
* VIEW NAME:    SCHEMATIC
************************************************************************

.SUBCKT SDBM200W80_PRECHARGE BL BLB BLEQB VDDI
*.PININFO BLEQB:I BL:B BLB:B VDDI:B
MP0_MIXV_SLH VDDI BLEQB BL VDDI pch_mac L=30N W=0.44U M=3
MP5_MIXV_SLH BL BLEQB BLB VDDI pch_mac L=30N W=440N M=1
MP17_MIXV_SLH BLB BLEQB VDDI VDDI pch_mac L=30N W=0.44U M=3
.ENDS

************************************************************************
* LIBRARY NAME: N28HPM_DP_LEAFCELLS
* CELL NAME:    YPASS_M4
* VIEW NAME:    SCHEMATIC
************************************************************************

.SUBCKT SDBM200W80_YPASS_M4 BL[0] BL[1] BL[2] BL[3] BLB[0] BLB[1] BLB[2] BLB[3] BLEQ 
+ BLEQB DL DLB VDDI VSSI WC WT Y[0] Y[1] Y[2] Y[3] Y[4] Y[5] Y[6] Y[7]
*.PININFO BLEQ:I Y[0]:I Y[1]:I Y[2]:I Y[3]:I Y[4]:I Y[5]:I Y[6]:I Y[7]:I 
*.PININFO BLEQB:O BL[0]:B BL[1]:B BL[2]:B BL[3]:B BLB[0]:B BLB[1]:B BLB[2]:B 
*.PININFO BLB[3]:B DL:B DLB:B VDDI:B VSSI:B WC:B WT:B
XI1 BLEQ VSSI VSSI VDDI VDDI NET37 SDBM200W80_INV_BULK FN=1 WN=0.21U LN=0.03U MULTI=1 
+ FP=1 WP=0.21U LP=0.03U
XI[0] Y[0] VSSI VSSI VDDI VDDI YB[0] SDBM200W80_INV_BULK FN=1 WN=0.12U LN=0.03U MULTI=1 
+ FP=1 WP=0.2U LP=0.03U
XI[1] Y[1] VSSI VSSI VDDI VDDI YB[1] SDBM200W80_INV_BULK FN=1 WN=0.12U LN=0.03U MULTI=1 
+ FP=1 WP=0.2U LP=0.03U
XI[2] Y[2] VSSI VSSI VDDI VDDI YB[2] SDBM200W80_INV_BULK FN=1 WN=0.12U LN=0.03U MULTI=1 
+ FP=1 WP=0.2U LP=0.03U
XI[3] Y[3] VSSI VSSI VDDI VDDI YB[3] SDBM200W80_INV_BULK FN=1 WN=0.12U LN=0.03U MULTI=1 
+ FP=1 WP=0.2U LP=0.03U
MM2[0] BLB[0] BL[0] VDDI VDDI pch_mac L=30N W=120N M=1
MM2[1] BLB[1] BL[1] VDDI VDDI pch_mac L=30N W=120N M=1
MM2[2] BLB[2] BL[2] VDDI VDDI pch_mac L=30N W=120N M=1
MM2[3] BLB[3] BL[3] VDDI VDDI pch_mac L=30N W=120N M=1
MM3[0] BL[0] BLB[0] VDDI VDDI pch_mac L=30N W=120N M=1
MM3[1] BL[1] BLB[1] VDDI VDDI pch_mac L=30N W=120N M=1
MM3[2] BL[2] BLB[2] VDDI VDDI pch_mac L=30N W=120N M=1
MM3[3] BL[3] BLB[3] VDDI VDDI pch_mac L=30N W=120N M=1
MP0 VDDI BLEQB DL VDDI pch_mac L=30N W=150N M=1
MP10[0] DLB YB[0] BLB[0] VDDI pch_mac L=30N W=370N M=1
MP10[1] DLB YB[1] BLB[1] VDDI pch_mac L=30N W=370N M=1
MP10[2] DLB YB[2] BLB[2] VDDI pch_mac L=30N W=370N M=1
MP10[3] DLB YB[3] BLB[3] VDDI pch_mac L=30N W=370N M=1
MP2 DLB BLEQB VDDI VDDI pch_mac L=30N W=150N M=1
MM1 BLEQB NET37 VDDI VDDI pch_mac L=30N W=1.12U M=1
MP1[0] DL YB[0] BL[0] VDDI pch_mac L=30N W=370N M=1
MP1[1] DL YB[1] BL[1] VDDI pch_mac L=30N W=370N M=1
MP1[2] DL YB[2] BL[2] VDDI pch_mac L=30N W=370N M=1
MP1[3] DL YB[3] BL[3] VDDI pch_mac L=30N W=370N M=1
MM0 BLEQB NET37 VSSI VSSI nch_mac L=30N W=245N M=2
MN31_MIXV_SLS[0] BL[0] Y[4] WT VSSI nch_mac L=30N W=820N M=1
MN31_MIXV_SLS[1] BL[1] Y[5] WT VSSI nch_mac L=30N W=820N M=1
MN31_MIXV_SLS[2] BL[2] Y[6] WT VSSI nch_mac L=30N W=820N M=1
MN31_MIXV_SLS[3] BL[3] Y[7] WT VSSI nch_mac L=30N W=820N M=1
MN30_MIXV_SLS[0] BLB[0] Y[4] WC VSSI nch_mac L=30N W=820N M=1
MN30_MIXV_SLS[1] BLB[1] Y[5] WC VSSI nch_mac L=30N W=820N M=1
MN30_MIXV_SLS[2] BLB[2] Y[6] WC VSSI nch_mac L=30N W=820N M=1
MN30_MIXV_SLS[3] BLB[3] Y[7] WC VSSI nch_mac L=30N W=820N M=1
XPRECHARGE[0] BL[0] BLB[0] BLEQB VDDI SDBM200W80_PRECHARGE
XPRECHARGE[1] BL[1] BLB[1] BLEQB VDDI SDBM200W80_PRECHARGE
XPRECHARGE[2] BL[2] BLB[2] BLEQB VDDI SDBM200W80_PRECHARGE
XPRECHARGE[3] BL[3] BLB[3] BLEQB VDDI SDBM200W80_PRECHARGE
.ENDS

************************************************************************
* LIBRARY NAME: N28_LOGIC_MAC
* CELL NAME:    NAND_BULK
* VIEW NAME:    SCHEMATIC
************************************************************************

.SUBCKT SDBM200W80_NAND_BULK A B G GB P PB Y
*.PININFO A:I B:I G:I GB:I P:I PB:I Y:O
M1 Y A P PB pch_mac L=LP1 W=WP1 M=MULTI*FP1
M4 Y B P PB pch_mac L=LP2 W=WP2 M=MULTI*FP2
M6 Y B NET9 GB nch_mac L=LN2 W=WN2 M=MULTI*FN2
M8 NET9 A G GB nch_mac L=LN1 W=WN1 M=MULTI*FN1
.ENDS

************************************************************************
* LIBRARY NAME: N28HPM_DP_LEAFCELLS
* CELL NAME:    SA_M4
* VIEW NAME:    SCHEMATIC
************************************************************************

.SUBCKT SDBM200W80_SA_M4 DLB_DN DLB_UP DL_DN DL_UP GBL GBLB PGB_DN PGB_UP PREB SAE VDDI 
+ VSSI
*.PININFO PGB_DN:I PGB_UP:I PREB:I SAE:I DLB_DN:B DLB_UP:B DL_DN:B DL_UP:B 
*.PININFO GBL:B GBLB:B VDDI:B VSSI:B
MN0 DL_IN DLB_IN NS VSSI nch_mac L=90N W=0.5U M=4
MN2 NS SAE VSSI VSSI nch_mac L=30N W=0.5U M=4
MN1 DLB_IN DL_IN NS VSSI nch_mac L=90N W=0.5U M=4
MN11 GBL SO VSSI VSSI nch_mac L=35.0N W=0.67U M=6
MN12 GBLB SOB VSSI VSSI nch_mac L=35.0N W=0.67U M=6
MP2 DL_IN DLB_IN VDDI VDDI pch_mac L=30N W=500N M=1
MP10 DL_IN PREB VDDI VDDI pch_mac L=30N W=500N M=1
MP6 DL_UP PGB_UP DL_IN VDDI pch_mac L=30N W=500N M=1
MP14 DLB_IN PGB_DN DLB_DN VDDI pch_mac L=30N W=500N M=1
MP7 DLB_IN PGB_UP DLB_UP VDDI pch_mac L=30N W=500N M=1
MP13 DL_DN PGB_DN DL_IN VDDI pch_mac L=30N W=500N M=1
MP3 DLB_IN DL_IN VDDI VDDI pch_mac L=30N W=500N M=1
MP8 DL_IN PREB DLB_IN VDDI pch_mac L=30N W=500N M=2
MP11 DLB_IN PREB VDDI VDDI pch_mac L=30N W=500N M=1
XINV1 DLB_IN VSSI VSSI VDDI VDDI SOB SDBM200W80_INV_BULK FN=1 WN=0.2U LN=0.03U MULTI=1 
+ FP=3 WP=0.22U LP=0.03U
XINV0 DL_IN VSSI VSSI VDDI VDDI SO SDBM200W80_INV_BULK FN=1 WN=0.2U LN=0.03U MULTI=1 
+ FP=3 WP=0.22U LP=0.03U
.ENDS

************************************************************************
* LIBRARY NAME: N28_LOGIC_MAC
* CELL NAME:    NAND3_BULK
* VIEW NAME:    SCHEMATIC
************************************************************************

.SUBCKT SDBM200W80_NAND3_BULK A B C G GB P PB Y
*.PININFO A:I B:I C:I G:I GB:I P:I PB:I Y:O
M1 Y A P PB pch_mac L=LP1 W=WP1 M=MULTI*FP1
M3 Y B P PB pch_mac L=LP2 W=WP2 M=MULTI*FP2
M7 Y C P PB pch_mac L=LP3 W=WP3 M=MULTI*FP3
M9 Y C NET17 GB nch_mac L=LN3 W=WN3 M=MULTI*FN3
M11 NET17 B NET14 GB nch_mac L=LN2 W=WN2 M=MULTI*FN2
M13 NET14 A G GB nch_mac L=LN1 W=WN1 M=MULTI*FN1
.ENDS

************************************************************************
* LIBRARY NAME: N28HPM_DP_LEAFCELLS
* CELL NAME:    IO_RWBLK_M4
* VIEW NAME:    SCHEMATIC
************************************************************************

.SUBCKT SDBM200W80_IO_RWBLK_M4 BLEQB_DN BLEQB_UP BLEQ_DN BLEQ_UP DLB_DN DLB_UP DL_DN 
+ DL_UP GBL GBLB GW GWB PREBG SAEB VDDI VSSI WC WT
*.PININFO BLEQB_DN:I BLEQB_UP:I BLEQ_DN:I BLEQ_UP:I GW:I GWB:I PREBG:I SAEB:I 
*.PININFO WC:O WT:O DLB_DN:B DLB_UP:B DL_DN:B DL_UP:B GBL:B GBLB:B VDDI:B 
*.PININFO VSSI:B
MP25 WT GWB VDDI VDDI pch_mac L=30N W=0.21U M=5
MP27 WC GW VDDI VDDI pch_mac L=30N W=0.21U M=5
MN0 WC GW VSSI VSSI nch_mac L=30N W=0.49U M=7
MN13 WT GWB VSSI VSSI nch_mac L=30N W=0.49U M=7
XI222 SAEC PREBGB VSSI VSSI VDDI VDDI PREB SDBM200W80_NAND_BULK FN1=1 WN1=0.25U 
+ LN1=0.03U FN2=1 WN2=0.25U LN2=0.03U FP2=1 WP2=0.32U LP2=0.03U MULTI=1 FP1=1 
+ WP1=0.32U LP1=0.03U
XSA DLB_DN DLB_UP DL_DN DL_UP GBL GBLB PGB_DN PGB_UP PREB SAE VDDI VSSI SDBM200W80_SA_M4
XI38 BLEQB_UP VSSI VSSI VDDI VDDI PGB_UP SDBM200W80_INV_BULK FN=1 WN=0.24U LN=0.03U 
+ MULTI=1 FP=1 WP=0.36U LP=0.03U
XI37 BLEQB_DN VSSI VSSI VDDI VDDI PGB_DN SDBM200W80_INV_BULK FN=1 WN=0.24U LN=0.03U 
+ MULTI=1 FP=1 WP=0.36U LP=0.03U
XI54 PREBG VSSI VSSI VDDI VDDI PREBGB SDBM200W80_INV_BULK FN=1 WN=0.25U LN=0.03U 
+ MULTI=1 FP=1 WP=0.32U LP=0.03U
XI248 SAEC VSSI VSSI VDDI VDDI SAE SDBM200W80_INV_BULK FN=1 WN=0.16U LN=0.03U MULTI=1 
+ FP=1 WP=0.33U LP=0.03U
XI235 GBLB GBL SAEB VSSI VSSI VDDI VDDI SAEC SDBM200W80_NAND3_BULK FN1=1 WN1=0.29U 
+ LN1=0.03U FN2=1 WN2=0.29U LN2=0.03U FN3=1 WN3=0.29U LN3=0.03U FP3=1 
+ WP3=0.16U LP3=0.03U FP2=1 WP2=0.16U LP2=0.03U MULTI=1 FP1=1 WP1=0.16U 
+ LP1=0.03U
.ENDS

************************************************************************
* LIBRARY NAME: N28HPM_DP_LEAFCELLS
* CELL NAME:    YPASS_M4_D
* VIEW NAME:    SCHEMATIC
************************************************************************

.SUBCKT SDBM200W80_YPASS_M4_D BL[0] BL[1] BL[2] BL[3] BLB[0] BLB[1] BLB[2] BLB[3] BLEQ 
+ BLEQB DL DLB VDDI VSSI WC WT Y[0] Y[1] Y[2] Y[3] Y[4] Y[5] Y[6] Y[7]
*.PININFO BLEQ:I Y[0]:I Y[1]:I Y[2]:I Y[3]:I Y[4]:I Y[5]:I Y[6]:I Y[7]:I 
*.PININFO BLEQB:O BL[0]:B BL[1]:B BL[2]:B BL[3]:B BLB[0]:B BLB[1]:B BLB[2]:B 
*.PININFO BLB[3]:B DL:B DLB:B VDDI:B VSSI:B WC:B WT:B
XI1 BLEQ VSSI VSSI VDDI VDDI NET37 SDBM200W80_INV_BULK FN=1 WN=0.21U LN=0.03U MULTI=1 
+ FP=1 WP=0.21U LP=0.03U
XI[0] Y[0] VSSI VSSI VDDI VDDI YB[0] SDBM200W80_INV_BULK FN=1 WN=0.12U LN=0.03U MULTI=1 
+ FP=1 WP=0.2U LP=0.03U
XI[1] Y[1] VSSI VSSI VDDI VDDI YB[1] SDBM200W80_INV_BULK FN=1 WN=0.12U LN=0.03U MULTI=1 
+ FP=1 WP=0.2U LP=0.03U
XI[2] Y[2] VSSI VSSI VDDI VDDI YB[2] SDBM200W80_INV_BULK FN=1 WN=0.12U LN=0.03U MULTI=1 
+ FP=1 WP=0.2U LP=0.03U
XI[3] Y[3] VSSI VSSI VDDI VDDI YB[3] SDBM200W80_INV_BULK FN=1 WN=0.12U LN=0.03U MULTI=1 
+ FP=1 WP=0.2U LP=0.03U
MM2[0] BLB[0] BL[0] VDDI VDDI pch_mac L=30N W=120N M=1
MM2[1] BLB[1] BL[1] VDDI VDDI pch_mac L=30N W=120N M=1
MM2[2] BLB[2] BL[2] VDDI VDDI pch_mac L=30N W=120N M=1
MM2[3] BLB[3] BL[3] VDDI VDDI pch_mac L=30N W=120N M=1
MM3[0] BL[0] BLB[0] VDDI VDDI pch_mac L=30N W=120N M=1
MM3[1] BL[1] BLB[1] VDDI VDDI pch_mac L=30N W=120N M=1
MM3[2] BL[2] BLB[2] VDDI VDDI pch_mac L=30N W=120N M=1
MM3[3] BL[3] BLB[3] VDDI VDDI pch_mac L=30N W=120N M=1
MP0 VDDI BLEQB DL VDDI pch_mac L=30N W=150N M=1
MP10[0] DLB YB[0] BLB[0] VDDI pch_mac L=30N W=370N M=1
MP10[1] DLB YB[1] BLB[1] VDDI pch_mac L=30N W=370N M=1
MP10[2] DLB YB[2] BLB[2] VDDI pch_mac L=30N W=370N M=1
MP10[3] DLB YB[3] BLB[3] VDDI pch_mac L=30N W=370N M=1
MP2 DLB BLEQB VDDI VDDI pch_mac L=30N W=150N M=1
MM1 BLEQB NET37 VDDI VDDI pch_mac L=30N W=1.12U M=1
MP1[0] DL YB[0] BL[0] VDDI pch_mac L=30N W=370N M=1
MP1[1] DL YB[1] BL[1] VDDI pch_mac L=30N W=370N M=1
MP1[2] DL YB[2] BL[2] VDDI pch_mac L=30N W=370N M=1
MP1[3] DL YB[3] BL[3] VDDI pch_mac L=30N W=370N M=1
MM0 BLEQB NET37 VSSI VSSI nch_mac L=30N W=490N M=1
MN31_MIXV_SLS[0] BL[0] Y[4] WT VSSI nch_mac L=30N W=820N M=1
MN31_MIXV_SLS[1] BL[1] Y[5] WT VSSI nch_mac L=30N W=820N M=1
MN31_MIXV_SLS[2] BL[2] Y[6] WT VSSI nch_mac L=30N W=820N M=1
MN31_MIXV_SLS[3] BL[3] Y[7] WT VSSI nch_mac L=30N W=820N M=1
MN30_MIXV_SLS[0] BLB[0] Y[4] WC VSSI nch_mac L=30N W=820N M=1
MN30_MIXV_SLS[1] BLB[1] Y[5] WC VSSI nch_mac L=30N W=820N M=1
MN30_MIXV_SLS[2] BLB[2] Y[6] WC VSSI nch_mac L=30N W=820N M=1
MN30_MIXV_SLS[3] BLB[3] Y[7] WC VSSI nch_mac L=30N W=820N M=1
XPRECHARGE[0] BL[0] BLB[0] BLEQB VDDI SDBM200W80_PRECHARGE
XPRECHARGE[1] BL[1] BLB[1] BLEQB VDDI SDBM200W80_PRECHARGE
XPRECHARGE[2] BL[2] BLB[2] BLEQB VDDI SDBM200W80_PRECHARGE
XPRECHARGE[3] BL[3] BLB[3] BLEQB VDDI SDBM200W80_PRECHARGE
.ENDS

************************************************************************
* LIBRARY NAME: N28HPM_DP_LEAFCELLS
* CELL NAME:    LIO_M4
* VIEW NAME:    SCHEMATIC
************************************************************************

.SUBCKT SDBM200W80_LIO_M4 BLB_DN[0] BLB_DN[1] BLB_DN[2] BLB_DN[3] BLB_UP[0] BLB_UP[1] 
+ BLB_UP[2] BLB_UP[3] BLEQ_DN BLEQ_UP BL_DN[0] BL_DN[1] BL_DN[2] BL_DN[3] 
+ BL_UP[0] BL_UP[1] BL_UP[2] BL_UP[3] GBL GBLB GW GWB PREBG SAEB VDDI VSSI 
+ Y_DN[0] Y_DN[1] Y_DN[2] Y_DN[3] Y_DN[4] Y_DN[5] Y_DN[6] Y_DN[7] Y_UP[0] 
+ Y_UP[1] Y_UP[2] Y_UP[3] Y_UP[4] Y_UP[5] Y_UP[6] Y_UP[7]
*.PININFO BLEQ_DN:I BLEQ_UP:I GW:I GWB:I PREBG:I SAEB:I Y_DN[0]:I Y_DN[1]:I 
*.PININFO Y_DN[2]:I Y_DN[3]:I Y_DN[4]:I Y_DN[5]:I Y_DN[6]:I Y_DN[7]:I 
*.PININFO Y_UP[0]:I Y_UP[1]:I Y_UP[2]:I Y_UP[3]:I Y_UP[4]:I Y_UP[5]:I 
*.PININFO Y_UP[6]:I Y_UP[7]:I BLB_DN[0]:B BLB_DN[1]:B BLB_DN[2]:B BLB_DN[3]:B 
*.PININFO BLB_UP[0]:B BLB_UP[1]:B BLB_UP[2]:B BLB_UP[3]:B BL_DN[0]:B 
*.PININFO BL_DN[1]:B BL_DN[2]:B BL_DN[3]:B BL_UP[0]:B BL_UP[1]:B BL_UP[2]:B 
*.PININFO BL_UP[3]:B GBL:B GBLB:B VDDI:B VSSI:B
XYPASS_U BL_UP[0] BL_UP[1] BL_UP[2] BL_UP[3] BLB_UP[0] BLB_UP[1] BLB_UP[2] 
+ BLB_UP[3] BLEQ_UP BLEQB_UP_0 DL_UP DLB_UP VDDI VSSI WC WT Y_UP[0] Y_UP[1] 
+ Y_UP[2] Y_UP[3] Y_UP[4] Y_UP[5] Y_UP[6] Y_UP[7] SDBM200W80_YPASS_M4
XIO_RWBLK BLEQB_DN_0 BLEQB_UP_0 BLEQ_DN BLEQ_UP DLB_DN DLB_UP DL_DN DL_UP GBL 
+ GBLB GW GWB PREBG SAEB VDDI VSSI WC WT SDBM200W80_IO_RWBLK_M4
XYPASS_D BL_DN[0] BL_DN[1] BL_DN[2] BL_DN[3] BLB_DN[0] BLB_DN[1] BLB_DN[2] 
+ BLB_DN[3] BLEQ_DN BLEQB_DN_0 DL_DN DLB_DN VDDI VSSI WC WT Y_DN[0] Y_DN[1] 
+ Y_DN[2] Y_DN[3] Y_DN[4] Y_DN[5] Y_DN[6] Y_DN[7] SDBM200W80_YPASS_M4_D
.ENDS

************************************************************************
* LIBRARY NAME: N28HPM_DP_LEAFCELLS
* CELL NAME:    XDRV_WLP_M
* VIEW NAME:    SCHEMATIC
************************************************************************

.SUBCKT SDBM200W80_XDRV_WLP_M BLEQ BLEQB BS BSB DEC_X2[0] DEC_X2[1] VDDI VSSI WLPY[0] 
+ WLPY[1]
*.PININFO BS:I DEC_X2[0]:I DEC_X2[1]:I BLEQ:O BLEQB:O BSB:O WLPY[0]:O 
*.PININFO WLPY[1]:O VDDI:B VSSI:B
XI534 MWL2[0] VSSI VSSI VDDI VDDI WLPY[0] SDBM200W80_INV_BULK FN=3 WN=1.5U LN=0.03U 
+ MULTI=1 FP=6 WP=1.5U LP=0.03U
XI532 NET022 VSSI VSSI VDDI VDDI WLPY[1] SDBM200W80_INV_BULK FN=3 WN=1.5U LN=0.03U 
+ MULTI=1 FP=6 WP=1.5U LP=0.03U
XI557 BSB VSSI VSSI VDDI VDDI BLEQ SDBM200W80_INV_BULK FN=6 WN=0.7U LN=0.03U MULTI=1 
+ FP=6 WP=0.9U LP=0.03U
XI595 BSB VSSI VSSI VDDI VDDI BLEQB SDBM200W80_INV_BULK FN=2 WN=0.9U LN=0.03U MULTI=1 
+ FP=2 WP=1.2U LP=0.03U
XI551 BS VSSI VSSI VDDI VDDI BSB SDBM200W80_INV_BULK FN=1 WN=0.9U LN=0.03U MULTI=1 FP=1 
+ WP=1.2U LP=0.03U
MM9 NET022 BS VDDI VDDI pch_mac L=30N W=0.7U M=3
MM20 MWL2[0] BS VDDI VDDI pch_mac L=30N W=0.7U M=3
MM12 MWL2[0] DEC_X2[0] VDDI VDDI pch_mac L=30N W=350N M=2
MM10 NET022 DEC_X2[1] VDDI VDDI pch_mac L=30N W=350N M=2
MM0 SHARE BS VSSI VSSI nch_mac L=30N W=1U M=6
MM32 NET022 DEC_X2[1] SHARE VSSI nch_mac L=30N W=0.7U M=5
MM28 MWL2[0] DEC_X2[0] SHARE VSSI nch_mac L=30N W=0.7U M=5
.ENDS

************************************************************************
* LIBRARY NAME: N28HPM_DP_LEAFCELLS
* CELL NAME:    XDRV_Y4
* VIEW NAME:    SCHEMATIC
************************************************************************

.SUBCKT SDBM200W80_XDRV_Y4 VDDI VSSI WLPY YIN[0] YIN[1] YIN[2] YIN[3] YOUT[0] YOUT[1] 
+ YOUT[2] YOUT[3]
*.PININFO WLPY:I YIN[0]:I YIN[1]:I YIN[2]:I YIN[3]:I YOUT[0]:O YOUT[1]:O 
*.PININFO YOUT[2]:O YOUT[3]:O VDDI:B VSSI:B
MM34 YOUT[3] MWL2[3] VSSI VSSI nch_mac L=30N W=0.73U M=8
MM31 MWL2[3] YIN[3] SHARE VSSI nch_mac L=30N W=0.72U M=4
MM28 MWL2[2] YIN[2] SHARE VSSI nch_mac L=30N W=0.72U M=4
MM23 YOUT[1] MWL2[1] VSSI VSSI nch_mac L=30N W=0.73U M=8
MM26 YOUT[2] MWL2[2] VSSI VSSI nch_mac L=30N W=0.73U M=8
MM2 MWL2[0] YIN[0] SHARE VSSI nch_mac L=30N W=0.72U M=4
MM5 YOUT[0] MWL2[0] VSSI VSSI nch_mac L=30N W=0.73U M=8
MN21 SHARE WLPY VSSI VSSI nch_mac L=30N W=0.8U M=8
MM21 MWL2[1] YIN[1] SHARE VSSI nch_mac L=30N W=0.72U M=4
MM1 MWL2[0] YIN[0] VDDI VDDI pch_mac L=30N W=0.68U M=3
MM24 YOUT[1] MWL2[1] VDDI VDDI pch_mac L=30N W=0.8U M=14
MM3 MWL2[0] WLPY VDDI VDDI pch_mac L=30N W=0.68U M=3
MM25 YOUT[2] MWL2[2] VDDI VDDI pch_mac L=30N W=0.8U M=14
MP31 SHARE WLPY VDDI VDDI pch_mac L=30N W=150N M=2
MM4 YOUT[0] MWL2[0] VDDI VDDI pch_mac L=30N W=0.8U M=14
MM32 MWL2[3] YIN[3] VDDI VDDI pch_mac L=30N W=0.68U M=3
MM30 MWL2[2] WLPY VDDI VDDI pch_mac L=30N W=0.68U M=3
MM20 MWL2[1] WLPY VDDI VDDI pch_mac L=30N W=0.68U M=3
MM33 MWL2[3] WLPY VDDI VDDI pch_mac L=30N W=0.68U M=3
MM35 YOUT[3] MWL2[3] VDDI VDDI pch_mac L=30N W=0.8U M=14
MM27 MWL2[2] YIN[2] VDDI VDDI pch_mac L=30N W=0.68U M=3
MM22 MWL2[1] YIN[1] VDDI VDDI pch_mac L=30N W=0.68U M=3
.ENDS

************************************************************************
* LIBRARY NAME: N28HPM_DP_LEAFCELLS
* CELL NAME:    XDRV_READ
* VIEW NAME:    SCHEMATIC